/*--------------------------------*- C++ -*----------------------------------*\
| =========                 |                                                 |
| \\      /  F ield         | OpenFOAM: The Open Source CFD Toolbox           |
|  \\    /   O peration     | Version:  1.5                                   |
|   \\  /    A nd           | Web:      http://www.OpenFOAM.org               |
|    \\/     M anipulation  |                                                 |
\*---------------------------------------------------------------------------*/
FoamFile
{
    version     2.0;
    format      ascii;
    class       dictionary;
    object      blockMeshDict;
}
// * * * * * * * * * * * * * * * * * * * * * * * * * * * * * * * * * * * * * //

convertToMeters 1;

vertices
(
    (0.0 0.0 0.0)   // 0
    (0.4 0.0 0.0)   // 1
    (0.6 0.0 0.0)   // 2
    (1.0 0.0 0.0)   // 3
    
    (0.0 0.2 0.0)   // 4
    (0.4 0.2 0.0)   // 5
    (0.6 0.2 0.0)   // 6
    (1.0 0.2 0.0)   // 7

    (0.0 0.8 0.0)   // 8
    (0.4 0.8 0.0)   // 9
    (0.6 0.8 0.0)   // 10
    (1.0 0.8 0.0)   // 11

    (0.0 1.0 0.0)   // 12
    (0.4 1.0 0.0)   // 13
    (0.6 1.0 0.0)   // 14
    (1.0 1.0 0.0)   // 15

    (0.0 0.0 0.1)   // 16
    (0.4 0.0 0.1)   // 17
    (0.6 0.0 0.1)   // 18
    (1.0 0.0 0.1)   // 19
    
    (0.0 0.2 0.1)   // 20
    (0.4 0.2 0.1)   // 21
    (0.6 0.2 0.1)   // 22
    (1.0 0.2 0.1)   // 23

    (0.0 0.8 0.1)   // 24
    (0.4 0.8 0.1)   // 25
    (0.6 0.8 0.1)   // 26
    (1.0 0.8 0.1)   // 27

    (0.0 1.0 0.1)   // 28
    (0.4 1.0 0.1)   // 29
    (0.6 1.0 0.1)   // 30
    (1.0 1.0 0.1)   // 31
);

blocks          
(
    hex (0 1 5 4 16 17 21 20) (40 20 1) simpleGrading (1 1 1)     // 0
    hex (1 2 6 5 17 18 22 21) (20 20 1) simpleGrading (1 1 1)     // 1
    hex (2 3 7 6 18 19 23 22) (40 20 1) simpleGrading (1 1 1)     // 2
    hex (4 5 9 8 20 21 25 24) (40 60 1) simpleGrading (1 1 1)     // 3
    hex (5 6 10 9 21 22 26 25) (20 60 1) simpleGrading (1 1 1)    // 4
    hex (6 7 11 10 22 23 27 26) (40 60 1) simpleGrading (1 1 1)   // 5
    hex (8 9 13 12 24 25 29 28) (40 20 1) simpleGrading (1 1 1)   // 6
    hex (9 10 14 13 25 26 30 29) (20 20 1) simpleGrading (1 1 1)  // 7
    hex (10 11 15 14 26 27 31 30) (40 20 1) simpleGrading (1 1 1) // 8
);

edges
(
);

patches
(
    wall inlet
    (
        (8 24 28 12)
    )
    
    wall outlet
    (
        (3 7 23 19)
    )
    
    wall heater
    (
        (1  2 18 17)
    )
    
    wall north
    (
        (12 28 29 13)
        (13 29 30 14)
        (14 30 31 15)
    )

    wall west
    (
        (0 16 20 4)
        (4 20 24 8)
    )
    
    wall east
    (
        (7 11 27 23)
        (11 15 31 27)
    )

    wall southwest
    (
        (0 1 17 16)
    )
    
    wall southeast
    (
        (2 3 19 18)
    )
    
    empty front
    (
        (16 17 21 20)
        (17 18 22 21)
        (18 19 23 22)
        (20 21 25 24)
        (21 22 26 25)
        (22 23 27 26)
        (24 25 29 28)
        (25 26 30 29)
        (26 27 31 30)
    )
    
    empty back
    (
        (1 0 4 5)
        (2 1 5 6)
        (3 2 6 7)
        (5 4 8 9)
        (6 5 9 10)
        (7 6 10 11)
        (9 8 12 13)
        (10 9 13 14)
        (11 10 14 15)
    )
);

mergePatchPairs
(
);

// ************************************************************************* //
