/*--------------------------------*- C++ -*----------------------------------*\
| =========                 |                                                 |
| \\      /  F ield         | OpenFOAM: The Open Source CFD Toolbox           |
|  \\    /   O peration     | Version:  1.5                                   |
|   \\  /    A nd           | Web:      http://www.OpenFOAM.org               |
|    \\/     M anipulation  |                                                 |
\*---------------------------------------------------------------------------*/
FoamFile
{
    version     2.0;
    format      ascii;
    class       dictionary;
    object      admSettingsDict;
}
// * * * * * * * * * * * * * * * * * * * * * * * * * * * * * * * * * * * * * //

chainRuleSearchDepth        3;
outputFlags
{
    timeDetails                     no; // default = no
    reactionAverages                yes; // default = yes
}

/*
chainRuleSearchDepth        integer;
outputFlags
{
    timeDetails                     yes/no; // default = no
    reactionAverages                yes/no; // default = yes
}
*/

// ************************************************************************* //
